import os

os.popen ("TurbSim_x64.exe Turbsim_input_file_8ms_row_0.inp")