"\\monsoon-data\Confidential\UQ\Turbsim\TurbSim_Usr_Win32.exe"    "\\monsoon-data\Confidential\UQ\UQ_Scripting\Row_0_BIN_1\Turbsim_inputs\Turbsim_input_file_8ms_row_0_seed_0.inp" 
"\\monsoon-data\Confidential\UQ\FAST_executable\FAST_Win32.exe"    "\\monsoon-data\Confidential\UQ\UQ_Scripting\Row_0_BIN_1\FAST\FAST_row_0_seed_0.fst"
