start /b job submit /nodegroup:Wind1+ /scheduler:monsoon /jobname:jobname:Turbsim_input_file_8ms_row_0_seed_0.inp "\\monsoon-data\Confidential\UQ\Turbsim\TurbSim64.exe" "\\monsoon-data\Confidential\UQ\UQ_Scripting\Row_0_BIN_1\Turbsim_inputs\Turbsim_input_file_8ms_row_0_seed_0.inp"


